<?xml version="1.0" encoding="UTF-8"?>

<!-- generated on 2025-08-03 16:42:06 by Eclipse SUMO netconvert Version 1.18.0
<configuration xmlns:xsi="http://www.w3.org/2001/XMLSchema-instance" xsi:noNamespaceSchemaLocation="http://sumo.dlr.de/xsd/netconvertConfiguration.xsd">

    <input>
        <osm-files value="map.osm"/>
    </input>

    <output>
        <output-file value="amrita.net.xml"/>
    </output>

    <projection>
        <proj.utm value="true"/>
    </projection>

</configuration>
-->

<net version="1.16" junctionCornerDetail="5" limitTurnSpeed="5.50" xmlns:xsi="http://www.w3.org/2001/XMLSchema-instance" xsi:noNamespaceSchemaLocation="http://sumo.dlr.de/xsd/net_file.xsd">

    <location netOffset="-789993.86,-1426120.17" convBoundary="0.00,0.00,1006.40,3016.38" origBoundary="77.672200,12.886739,77.681404,12.913937" projParameter="+proj=utm +zone=43 +ellps=WGS84 +datum=WGS84 +units=m +no_defs"/>

    <type id="highway.secondary" priority="11" numLanes="1" speed="27.78" disallow="tram rail_urban rail rail_electric rail_fast ship" oneway="0"/>
    <type id="highway.service" priority="1" numLanes="1" speed="5.56" allow="pedestrian delivery bicycle" oneway="0"/>
    <type id="highway.tertiary" priority="10" numLanes="1" speed="22.22" disallow="tram rail_urban rail rail_electric rail_fast ship" oneway="0"/>

    <edge id=":10182231062_0" function="internal">
        <lane id=":10182231062_0_0" index="0" allow="pedestrian delivery bicycle" speed="5.12" length="5.10" shape="377.13,977.12 376.33,975.93 375.36,975.27 374.22,975.13 372.92,975.51"/>
    </edge>
    <edge id=":10182231062_1" function="internal">
        <lane id=":10182231062_1_0" index="0" allow="pedestrian delivery bicycle" speed="5.56" length="10.29" shape="377.13,977.12 376.24,974.43 376.45,972.12 377.73,970.20 380.11,968.66"/>
    </edge>
    <edge id=":10182231062_2" function="internal">
        <lane id=":10182231062_2_0" index="0" allow="pedestrian delivery bicycle" speed="3.65" length="4.67" shape="377.13,977.12 377.31,975.69 377.85,974.97 378.75,974.98 379.99,975.70"/>
    </edge>
    <edge id=":10182231062_3" function="internal">
        <lane id=":10182231062_3_0" index="0" allow="pedestrian delivery bicycle" speed="5.01" length="5.03" shape="381.45,971.56 380.29,972.31 379.66,973.26 379.56,974.38 379.99,975.70"/>
    </edge>
    <edge id=":10182231062_4" function="internal">
        <lane id=":10182231062_4_0" index="0" allow="pedestrian delivery bicycle" speed="5.56" length="9.40" shape="381.45,971.56 372.92,975.51"/>
    </edge>
    <edge id=":10182231062_5" function="internal">
        <lane id=":10182231062_5_0" index="0" allow="pedestrian delivery bicycle" speed="3.65" length="4.67" shape="381.45,971.56 380.03,971.34 379.33,970.78 379.35,969.89 380.11,968.66"/>
    </edge>
    <edge id=":10182231062_6" function="internal">
        <lane id=":10182231062_6_0" index="0" allow="pedestrian delivery bicycle" speed="5.56" length="9.40" shape="371.58,972.61 380.11,968.66"/>
    </edge>
    <edge id=":10182231062_7" function="internal">
        <lane id=":10182231062_7_0" index="0" allow="pedestrian delivery bicycle" speed="5.56" length="10.17" shape="371.58,972.61 374.20,971.83 376.48,972.08 378.41,973.37 379.99,975.70"/>
    </edge>
    <edge id=":10182231062_8" function="internal">
        <lane id=":10182231062_8_0" index="0" allow="pedestrian delivery bicycle" speed="3.65" length="4.67" shape="371.58,972.61 373.00,972.83 373.70,973.39 373.67,974.28 372.92,975.51"/>
    </edge>
    <edge id=":10182231078_0" function="internal">
        <lane id=":10182231078_0_0" index="0" allow="pedestrian delivery bicycle" speed="3.65" length="4.67" shape="484.57,853.95 485.76,853.12 486.65,853.04 487.25,853.70 487.56,855.11"/>
    </edge>
    <edge id=":10182231079_0" function="internal">
        <lane id=":10182231079_0_0" index="0" allow="pedestrian delivery bicycle" speed="5.56" length="9.40" shape="433.29,906.91 424.57,910.42"/>
    </edge>
    <edge id=":10182231079_1" function="internal">
        <lane id=":10182231079_1_0" index="0" allow="pedestrian delivery bicycle" speed="5.56" length="10.28" shape="433.29,906.91 430.54,907.58 428.26,907.21 426.44,905.78 425.09,903.30"/>
    </edge>
    <edge id=":10182231079_2" function="internal">
        <lane id=":10182231079_2_0" index="0" allow="pedestrian delivery bicycle" speed="3.65" length="4.67" shape="433.29,906.91 431.88,906.62 431.21,906.03 431.28,905.13 432.10,903.94"/>
    </edge>
    <edge id=":10182231079_3" function="internal">
        <lane id=":10182231079_3_0" index="0" allow="pedestrian delivery bicycle" speed="5.02" length="5.03" shape="428.08,902.18 428.75,903.39 429.64,904.09 430.75,904.27 432.10,903.94"/>
    </edge>
    <edge id=":10182231079_4" function="internal">
        <lane id=":10182231079_4_0" index="0" allow="pedestrian delivery bicycle" speed="5.56" length="10.17" shape="428.08,902.18 428.70,904.92 428.31,907.21 426.94,909.04 424.57,910.42"/>
    </edge>
    <edge id=":10182231079_5" function="internal">
        <lane id=":10182231079_5_0" index="0" allow="pedestrian delivery bicycle" speed="3.65" length="4.67" shape="428.08,902.18 427.75,903.58 427.15,904.24 426.26,904.14 425.09,903.30"/>
    </edge>
    <edge id=":10182231079_6" function="internal">
        <lane id=":10182231079_6_0" index="0" allow="pedestrian delivery bicycle" speed="5.12" length="5.10" shape="423.37,907.45 424.54,906.76 425.22,905.84 425.40,904.69 425.09,903.30"/>
    </edge>
    <edge id=":10182231079_7" function="internal">
        <lane id=":10182231079_7_0" index="0" allow="pedestrian delivery bicycle" speed="5.56" length="9.40" shape="423.37,907.45 432.10,903.94"/>
    </edge>
    <edge id=":10182231079_8" function="internal">
        <lane id=":10182231079_8_0" index="0" allow="pedestrian delivery bicycle" speed="3.65" length="4.67" shape="423.37,907.45 424.78,907.75 425.45,908.34 425.38,909.23 424.57,910.42"/>
    </edge>
    <edge id=":10182231083_0" function="internal">
        <lane id=":10182231083_0_0" index="0" allow="pedestrian delivery bicycle" speed="3.65" length="4.67" shape="437.72,801.94 439.00,801.29 439.90,801.33 440.40,802.08 440.51,803.51"/>
    </edge>
    <edge id=":10308621081_0" function="internal">
        <lane id=":10308621081_0_0" index="0" allow="pedestrian delivery bicycle" speed="3.65" length="4.67" shape="156.36,1000.74 154.93,1000.60 154.20,1000.08 154.18,999.19 154.86,997.92"/>
    </edge>
    <edge id=":10308621084_0" function="internal">
        <lane id=":10308621084_0_0" index="0" allow="pedestrian delivery bicycle" speed="5.56" length="7.57" shape="220.21,996.07 218.41,994.76 217.04,994.06 215.54,993.63 213.35,993.13"/>
    </edge>
    <edge id=":10308621084_1" function="internal">
        <lane id=":10308621084_1_0" index="0" allow="pedestrian delivery bicycle" speed="5.56" length="9.28" shape="220.21,996.07 218.78,994.54 217.89,992.61 217.55,990.30 217.74,987.58"/>
    </edge>
    <edge id=":10308621084_2" function="internal">
        <lane id=":10308621084_2_0" index="0" allow="pedestrian delivery bicycle" speed="3.65" length="4.67" shape="220.21,996.07 219.76,994.70 219.94,993.83 220.75,993.45 222.19,993.56"/>
    </edge>
    <edge id=":10308621084_3" function="internal">
        <lane id=":10308621084_3_0" index="0" allow="pedestrian delivery bicycle" speed="5.56" length="5.88" shape="220.90,988.09 220.74,989.92 220.91,991.44 221.39,992.65 222.19,993.56"/>
    </edge>
    <edge id=":10308621084_4" function="internal">
        <lane id=":10308621084_4_0" index="0" allow="pedestrian delivery bicycle" speed="5.56" length="10.54" shape="220.90,988.09 220.03,990.88 218.49,992.65 216.26,993.40 213.35,993.13"/>
    </edge>
    <edge id=":10308621084_5" function="internal">
        <lane id=":10308621084_5_0" index="0" allow="pedestrian delivery bicycle" speed="3.65" length="4.67" shape="220.90,988.09 219.92,989.15 219.07,989.42 218.34,988.89 217.74,987.58"/>
    </edge>
    <edge id=":10308621084_6" function="internal">
        <lane id=":10308621084_6_0" index="0" allow="pedestrian delivery bicycle" speed="4.96" length="5.09" shape="214.09,990.02 215.50,990.15 216.58,989.79 217.32,988.93 217.74,987.58"/>
    </edge>
    <edge id=":10308621084_7" function="internal">
        <lane id=":10308621084_7_0" index="0" allow="pedestrian delivery bicycle" speed="5.56" length="8.96" shape="214.09,990.02 216.68,990.62 218.45,991.15 220.06,992.00 222.19,993.56"/>
    </edge>
    <edge id=":10308621084_8" function="internal">
        <lane id=":10308621084_8_0" index="0" allow="pedestrian delivery bicycle" speed="3.65" length="4.67" shape="214.09,990.02 215.08,991.08 215.28,991.95 214.71,992.63 213.35,993.13"/>
    </edge>
    <edge id=":10308621086_0" function="internal">
        <lane id=":10308621086_0_0" index="0" allow="pedestrian delivery bicycle" speed="4.29" length="3.35" shape="276.80,992.62 276.34,992.34 275.57,992.68 274.68,993.24 273.87,993.68"/>
    </edge>
    <edge id=":10308621086_1" function="internal">
        <lane id=":10308621086_1_0" index="0" disallow="tram rail_urban rail rail_electric rail_fast ship" speed="27.78" length="6.24" shape="276.80,992.62 274.81,986.71"/>
    </edge>
    <edge id=":10308621086_2" function="internal">
        <lane id=":10308621086_2_0" index="0" disallow="tram rail_urban rail rail_electric rail_fast ship" speed="27.78" length="6.24" shape="277.84,985.69 279.83,991.60"/>
    </edge>
    <edge id=":10308621086_3" function="internal">
        <lane id=":10308621086_3_0" index="0" allow="pedestrian delivery bicycle" speed="6.87" length="3.26" shape="277.84,985.69 278.34,988.42 278.24,988.89"/>
    </edge>
    <edge id=":10308621086_7" function="internal">
        <lane id=":10308621086_7_0" index="0" allow="pedestrian delivery bicycle" speed="6.87" length="6.90" shape="278.24,988.89 277.85,990.66 276.36,992.42 273.87,993.68"/>
    </edge>
    <edge id=":10308621086_4" function="internal">
        <lane id=":10308621086_4_0" index="0" allow="pedestrian delivery bicycle" speed="5.05" length="5.02" shape="272.84,990.65 274.07,990.03 274.81,989.16 275.05,988.06 274.81,986.71"/>
    </edge>
    <edge id=":10308621086_5" function="internal">
        <lane id=":10308621086_5_0" index="0" allow="pedestrian delivery bicycle" speed="6.09" length="7.81" shape="272.84,990.65 275.52,989.94 277.58,989.87 279.01,990.42 279.83,991.60"/>
    </edge>
    <edge id=":10308621086_6" function="internal">
        <lane id=":10308621086_6_0" index="0" allow="pedestrian delivery bicycle" speed="3.65" length="4.67" shape="272.84,990.65 274.23,991.02 274.87,991.65 274.75,992.53 273.87,993.68"/>
    </edge>
    <edge id=":10308621087_0" function="internal">
        <lane id=":10308621087_0_0" index="0" allow="pedestrian delivery bicycle" speed="3.65" length="4.67" shape="230.84,905.57 231.82,904.51 232.68,904.24 233.40,904.76 234.00,906.07"/>
    </edge>
    <edge id=":10996521723_0" function="internal">
        <lane id=":10996521723_0_0" index="0" allow="pedestrian delivery bicycle" speed="5.56" length="0.51" shape="62.31,847.07 62.16,847.05 62.06,847.05 61.95,847.07 61.81,847.10"/>
    </edge>
    <edge id=":10996521723_1" function="internal">
        <lane id=":10996521723_1_0" index="0" allow="pedestrian delivery bicycle" speed="5.56" length="1.53" shape="61.09,843.98 61.53,843.88 61.84,843.84 62.15,843.84 62.60,843.88"/>
    </edge>
    <edge id=":10997293460_0" function="internal">
        <lane id=":10997293460_0_0" index="0" allow="pedestrian delivery bicycle" speed="3.65" length="4.67" shape="601.89,923.16 601.94,924.60 601.52,925.39 600.64,925.53 599.29,925.02"/>
    </edge>
    <edge id=":10997293461_0" function="internal">
        <lane id=":10997293461_0_0" index="0" allow="pedestrian delivery bicycle" speed="3.65" length="4.67" shape="540.68,1167.73 539.87,1168.92 539.07,1169.32 538.27,1168.91 537.48,1167.71"/>
    </edge>
    <edge id=":11024831405_0" function="internal">
        <lane id=":11024831405_0_0" index="0" allow="pedestrian delivery bicycle" speed="5.56" length="9.44" shape="136.24,919.45 134.03,928.63"/>
    </edge>
    <edge id=":11024831405_1" function="internal">
        <lane id=":11024831405_1_0" index="0" allow="pedestrian delivery bicycle" speed="5.56" length="10.22" shape="136.24,919.45 135.24,921.87 133.61,923.48 131.34,924.28 128.44,924.26"/>
    </edge>
    <edge id=":11024831405_2" function="internal">
        <lane id=":11024831405_2_0" index="0" allow="pedestrian delivery bicycle" speed="3.65" length="4.67" shape="136.24,919.45 135.18,920.43 134.31,920.63 133.63,920.06 133.13,918.70"/>
    </edge>
    <edge id=":11024831405_3" function="internal">
        <lane id=":11024831405_3_0" index="0" allow="pedestrian delivery bicycle" speed="5.41" length="5.45" shape="128.86,921.09 130.47,921.12 131.72,920.73 132.60,919.92 133.13,918.70"/>
    </edge>
    <edge id=":11024831405_4" function="internal">
        <lane id=":11024831405_4_0" index="0" allow="pedestrian delivery bicycle" speed="5.56" length="10.70" shape="128.86,921.09 131.72,921.90 133.54,923.42 134.31,925.66 134.03,928.63"/>
    </edge>
    <edge id=":11024831405_5" function="internal">
        <lane id=":11024831405_5_0" index="0" allow="pedestrian delivery bicycle" speed="3.65" length="4.67" shape="128.86,921.09 129.94,922.04 130.23,922.89 129.73,923.63 128.44,924.26"/>
    </edge>
    <edge id=":11024831405_6" function="internal">
        <lane id=":11024831405_6_0" index="0" allow="pedestrian delivery bicycle" speed="4.93" length="5.13" shape="130.92,927.88 131.06,926.46 130.69,925.38 129.81,924.65 128.44,924.26"/>
    </edge>
    <edge id=":11024831405_7" function="internal">
        <lane id=":11024831405_7_0" index="0" allow="pedestrian delivery bicycle" speed="5.56" length="9.44" shape="130.92,927.88 133.13,918.70"/>
    </edge>
    <edge id=":11024831405_8" function="internal">
        <lane id=":11024831405_8_0" index="0" allow="pedestrian delivery bicycle" speed="3.65" length="4.67" shape="130.92,927.88 131.98,926.90 132.85,926.70 133.54,927.27 134.03,928.63"/>
    </edge>
    <edge id=":12040922851_0" function="internal">
        <lane id=":12040922851_0_0" index="0" disallow="tram rail_urban rail rail_electric rail_fast ship" speed="27.78" length="0.15" shape="87.84,189.45 87.81,189.30"/>
    </edge>
    <edge id=":12040922851_1" function="internal">
        <lane id=":12040922851_1_0" index="0" disallow="tram rail_urban rail rail_electric rail_fast ship" speed="27.78" length="0.11" shape="90.94,188.65 90.96,188.76"/>
    </edge>
    <edge id=":12040922853_0" function="internal">
        <lane id=":12040922853_0_0" index="0" disallow="tram rail_urban rail rail_electric rail_fast ship" speed="27.78" length="0.10" shape="91.79,209.76 91.79,209.76"/>
    </edge>
    <edge id=":12040922853_1" function="internal">
        <lane id=":12040922853_1_0" index="0" disallow="tram rail_urban rail rail_electric rail_fast ship" speed="27.78" length="0.10" shape="94.94,209.17 94.94,209.17"/>
    </edge>
    <edge id=":12040922854_0" function="internal">
        <lane id=":12040922854_0_0" index="0" disallow="tram rail_urban rail rail_electric rail_fast ship" speed="22.22" length="0.25" shape="133.15,190.34 133.07,190.34 133.02,190.35 132.97,190.35 132.90,190.36"/>
    </edge>
    <edge id=":12040922854_1" function="internal">
        <lane id=":12040922854_1_0" index="0" disallow="tram rail_urban rail rail_electric rail_fast ship" speed="22.22" length="0.76" shape="132.35,187.21 132.57,187.17 132.73,187.15 132.88,187.15 133.11,187.14"/>
    </edge>
    <edge id=":264845660_0" function="internal">
        <lane id=":264845660_0_0" index="0" disallow="tram rail_urban rail rail_electric rail_fast ship" speed="3.65" length="4.67" shape="569.45,3016.35 568.68,3017.56 567.89,3017.98 567.08,3017.60 566.25,3016.42"/>
    </edge>
    <edge id=":267216110_0" function="internal">
        <lane id=":267216110_0_0" index="0" disallow="tram rail_urban rail rail_electric rail_fast ship" speed="27.78" length="11.24" shape="280.41,1003.48 276.86,992.81"/>
    </edge>
    <edge id=":267216110_1" function="internal">
        <lane id=":267216110_1_0" index="0" disallow="tram rail_urban rail rail_electric rail_fast ship" speed="8.30" length="3.92" shape="280.41,1003.48 279.77,999.77 279.81,999.62"/>
    </edge>
    <edge id=":267216110_2" function="internal">
        <lane id=":267216110_2_0" index="0" disallow="tram rail_urban rail rail_electric rail_fast ship" speed="3.65" length="1.44" shape="280.41,1003.48 280.79,1002.09"/>
    </edge>
    <edge id=":267216110_9" function="internal">
        <lane id=":267216110_9_0" index="0" disallow="tram rail_urban rail rail_electric rail_fast ship" speed="8.30" length="10.40" shape="279.81,999.62 280.49,996.61 282.56,994.01 285.98,991.96"/>
    </edge>
    <edge id=":267216110_10" function="internal">
        <lane id=":267216110_10_0" index="0" disallow="tram rail_urban rail rail_electric rail_fast ship" speed="3.65" length="3.23" shape="280.79,1002.09 281.43,1001.45 282.31,1001.58 283.45,1002.47"/>
    </edge>
    <edge id=":267216110_3" function="internal">
        <lane id=":267216110_3_0" index="0" disallow="tram rail_urban rail rail_electric rail_fast ship" speed="6.87" length="9.48" shape="287.26,994.89 284.95,996.26 283.54,997.98 283.04,1000.05 283.45,1002.47"/>
    </edge>
    <edge id=":267216110_4" function="internal">
        <lane id=":267216110_4_0" index="0" disallow="tram rail_urban rail rail_electric rail_fast ship" speed="7.24" length="12.15" shape="287.26,994.89 283.43,996.14 280.43,996.21 278.24,995.10 276.86,992.81"/>
    </edge>
    <edge id=":267216110_5" function="internal">
        <lane id=":267216110_5_0" index="0" disallow="tram rail_urban rail rail_electric rail_fast ship" speed="3.65" length="4.67" shape="287.26,994.89 285.84,994.64 285.15,994.06 285.20,993.17 285.98,991.96"/>
    </edge>
    <edge id=":267216110_6" function="internal">
        <lane id=":267216110_6_0" index="0" disallow="tram rail_urban rail rail_electric rail_fast ship" speed="5.58" length="6.77" shape="279.89,991.79 280.58,992.72 281.83,993.06 283.63,992.80 285.98,991.96"/>
    </edge>
    <edge id=":267216110_7" function="internal">
        <lane id=":267216110_7_0" index="0" disallow="tram rail_urban rail rail_electric rail_fast ship" speed="27.78" length="11.25" shape="279.89,991.79 283.45,1002.47"/>
    </edge>
    <edge id=":267216110_8" function="internal">
        <lane id=":267216110_8_0" index="0" disallow="tram rail_urban rail rail_electric rail_fast ship" speed="3.65" length="1.44" shape="279.89,991.79 279.52,993.19"/>
    </edge>
    <edge id=":267216110_11" function="internal">
        <lane id=":267216110_11_0" index="0" disallow="tram rail_urban rail rail_electric rail_fast ship" speed="3.65" length="3.23" shape="279.52,993.19 278.89,993.82 278.00,993.70 276.86,992.81"/>
    </edge>
    <edge id=":267216122_0" function="internal">
        <lane id=":267216122_0_0" index="0" disallow="tram rail_urban rail rail_electric rail_fast ship" speed="7.23" length="9.41" shape="575.47,877.05 573.53,874.88 571.56,873.59 569.55,873.16 567.51,873.61"/>
    </edge>
    <edge id=":267216122_1" function="internal">
        <lane id=":267216122_1_0" index="0" disallow="tram rail_urban rail rail_electric rail_fast ship" speed="7.74" length="14.83" shape="575.47,877.05 573.50,873.39 573.32,870.14 574.92,867.30 578.30,864.88"/>
    </edge>
    <edge id=":267216122_2" function="internal">
        <lane id=":267216122_2_0" index="0" disallow="tram rail_urban rail rail_electric rail_fast ship" speed="3.65" length="4.67" shape="575.47,877.05 575.40,875.61 575.81,874.81 576.69,874.66 578.05,875.15"/>
    </edge>
    <edge id=":267216122_3" function="internal">
        <lane id=":267216122_3_0" index="0" disallow="tram rail_urban rail rail_electric rail_fast ship" speed="6.19" length="9.05" shape="579.77,867.72 577.71,869.20 576.73,870.93 576.84,872.91 578.05,875.15"/>
    </edge>
    <edge id=":267216122_4" function="internal">
        <lane id=":267216122_4_0" index="0" disallow="tram rail_urban rail rail_electric rail_fast ship" speed="22.22" length="13.60" shape="579.77,867.72 567.51,873.61"/>
    </edge>
    <edge id=":267216122_5" function="internal">
        <lane id=":267216122_5_0" index="0" disallow="tram rail_urban rail rail_electric rail_fast ship" speed="3.65" length="1.44" shape="579.77,867.72 578.34,867.56"/>
    </edge>
    <edge id=":267216122_9" function="internal">
        <lane id=":267216122_9_0" index="0" disallow="tram rail_urban rail rail_electric rail_fast ship" speed="3.65" length="3.23" shape="578.34,867.56 577.61,867.04 577.60,866.14 578.30,864.88"/>
    </edge>
    <edge id=":267216122_6" function="internal">
        <lane id=":267216122_6_0" index="0" disallow="tram rail_urban rail rail_electric rail_fast ship" speed="22.22" length="13.38" shape="566.24,870.68 578.30,864.88"/>
    </edge>
    <edge id=":267216122_7" function="internal">
        <lane id=":267216122_7_0" index="0" disallow="tram rail_urban rail rail_electric rail_fast ship" speed="8.62" length="3.24" shape="566.24,870.68 569.39,869.91"/>
    </edge>
    <edge id=":267216122_8" function="internal">
        <lane id=":267216122_8_0" index="0" disallow="tram rail_urban rail rail_electric rail_fast ship" speed="3.65" length="1.44" shape="566.24,870.68 567.66,870.94"/>
    </edge>
    <edge id=":267216122_10" function="internal">
        <lane id=":267216122_10_0" index="0" disallow="tram rail_urban rail rail_electric rail_fast ship" speed="8.62" length="10.50" shape="569.39,869.91 572.41,870.40 575.30,872.15 578.05,875.15"/>
    </edge>
    <edge id=":267216122_11" function="internal">
        <lane id=":267216122_11_0" index="0" disallow="tram rail_urban rail rail_electric rail_fast ship" speed="3.65" length="3.23" shape="567.66,870.94 568.34,871.51 568.29,872.40 567.51,873.61"/>
    </edge>
    <edge id=":267216146_0" function="internal">
        <lane id=":267216146_0_0" index="0" disallow="tram rail_urban rail rail_electric rail_fast ship" speed="27.78" length="14.06" shape="90.61,203.44 87.88,189.65"/>
    </edge>
    <edge id=":267216146_1" function="internal">
        <lane id=":267216146_1_0" index="0" disallow="tram rail_urban rail rail_electric rail_fast ship" speed="7.98" length="3.91" shape="90.61,203.44 90.44,199.53"/>
    </edge>
    <edge id=":267216146_2" function="internal">
        <lane id=":267216146_2_0" index="0" disallow="tram rail_urban rail rail_electric rail_fast ship" speed="3.65" length="1.44" shape="90.61,203.44 91.18,202.11"/>
    </edge>
    <edge id=":267216146_9" function="internal">
        <lane id=":267216146_9_0" index="0" disallow="tram rail_urban rail rail_electric rail_fast ship" speed="7.98" length="10.33" shape="90.44,199.53 91.57,196.52 94.00,194.42 97.72,193.21"/>
    </edge>
    <edge id=":267216146_10" function="internal">
        <lane id=":267216146_10_0" index="0" disallow="tram rail_urban rail rail_electric rail_fast ship" speed="3.65" length="3.23" shape="91.18,202.11 91.89,201.57 92.75,201.82 93.76,202.85"/>
    </edge>
    <edge id=":267216146_3" function="internal">
        <lane id=":267216146_3_0" index="0" disallow="tram rail_urban rail rail_electric rail_fast ship" speed="6.48" length="9.03" shape="98.26,196.36 95.90,197.13 94.37,198.47 93.65,200.37 93.76,202.85"/>
    </edge>
    <edge id=":267216146_4" function="internal">
        <lane id=":267216146_4_0" index="0" disallow="tram rail_urban rail rail_electric rail_fast ship" speed="8.05" length="13.99" shape="98.26,196.36 94.37,196.51 91.34,195.43 89.18,193.15 87.88,189.65"/>
    </edge>
    <edge id=":267216146_5" function="internal">
        <lane id=":267216146_5_0" index="0" disallow="tram rail_urban rail rail_electric rail_fast ship" speed="3.65" length="4.67" shape="98.26,196.36 96.94,195.78 96.41,195.06 96.67,194.20 97.72,193.21"/>
    </edge>
    <edge id=":267216146_6" function="internal">
        <lane id=":267216146_6_0" index="0" disallow="tram rail_urban rail rail_electric rail_fast ship" speed="6.58" length="9.00" shape="91.00,188.94 91.83,191.17 93.23,192.63 95.19,193.31 97.72,193.21"/>
    </edge>
    <edge id=":267216146_7" function="internal">
        <lane id=":267216146_7_0" index="0" disallow="tram rail_urban rail rail_electric rail_fast ship" speed="27.78" length="14.18" shape="91.00,188.94 93.76,202.85"/>
    </edge>
    <edge id=":267216146_8" function="internal">
        <lane id=":267216146_8_0" index="0" disallow="tram rail_urban rail rail_electric rail_fast ship" speed="3.65" length="1.44" shape="91.00,188.94 90.49,190.29"/>
    </edge>
    <edge id=":267216146_11" function="internal">
        <lane id=":267216146_11_0" index="0" disallow="tram rail_urban rail rail_electric rail_fast ship" speed="3.65" length="3.23" shape="90.49,190.29 89.79,190.85 88.93,190.64 87.88,189.65"/>
    </edge>
    <edge id=":5966007721_0" function="internal">
        <lane id=":5966007721_0_0" index="0" disallow="tram rail_urban rail rail_electric rail_fast ship" speed="22.22" length="9.40" shape="356.38,964.98 347.75,968.71"/>
    </edge>
    <edge id=":5966007721_1" function="internal">
        <lane id=":5966007721_1_0" index="0" allow="pedestrian delivery bicycle" speed="6.84" length="3.29" shape="356.38,964.98 353.65,965.72 353.20,965.66"/>
    </edge>
    <edge id=":5966007721_7" function="internal">
        <lane id=":5966007721_7_0" index="0" allow="pedestrian delivery bicycle" speed="6.84" length="7.02" shape="353.20,965.66 351.35,965.40 349.50,964.01 348.08,961.55"/>
    </edge>
    <edge id=":5966007721_2" function="internal">
        <lane id=":5966007721_2_0" index="0" allow="pedestrian delivery bicycle" speed="5.01" length="5.03" shape="351.06,960.37 351.75,961.57 352.65,962.25 353.77,962.41 355.11,962.04"/>
    </edge>
    <edge id=":5966007721_3" function="internal">
        <lane id=":5966007721_3_0" index="0" allow="pedestrian delivery bicycle" speed="6.94" length="10.17" shape="351.06,960.37 351.73,963.10 351.41,965.40 350.08,967.27 347.75,968.71"/>
    </edge>
    <edge id=":5966007721_4" function="internal">
        <lane id=":5966007721_4_0" index="0" allow="pedestrian delivery bicycle" speed="3.65" length="4.67" shape="351.06,960.37 350.76,961.78 350.16,962.45 349.27,962.37 348.08,961.55"/>
    </edge>
    <edge id=":5966007721_5" function="internal">
        <lane id=":5966007721_5_0" index="0" allow="pedestrian delivery bicycle" speed="5.14" length="5.12" shape="346.48,965.78 347.63,965.06 348.28,964.11 348.43,962.95 348.08,961.55"/>
    </edge>
    <edge id=":5966007721_6" function="internal">
        <lane id=":5966007721_6_0" index="0" disallow="tram rail_urban rail rail_electric rail_fast ship" speed="22.22" length="9.40" shape="346.48,965.78 355.11,962.04"/>
    </edge>
    <edge id=":5966007722_0" function="internal">
        <lane id=":5966007722_0_0" index="0" allow="pedestrian delivery bicycle" speed="5.04" length="5.01" shape="342.32,947.12 341.64,945.93 340.74,945.25 339.62,945.07 338.29,945.40"/>
    </edge>
    <edge id=":5966007722_1" function="internal">
        <lane id=":5966007722_1_0" index="0" allow="pedestrian delivery bicycle" speed="5.56" length="9.51" shape="342.32,947.12 338.77,938.30"/>
    </edge>
    <edge id=":5966007722_2" function="internal">
        <lane id=":5966007722_2_0" index="0" allow="pedestrian delivery bicycle" speed="5.56" length="9.95" shape="342.32,947.12 341.65,944.43 341.95,942.17 343.21,940.32 345.45,938.89"/>
    </edge>
    <edge id=":5966007722_3" function="internal">
        <lane id=":5966007722_3_0" index="0" allow="pedestrian delivery bicycle" speed="3.65" length="4.67" shape="342.32,947.12 342.62,945.71 343.22,945.04 344.11,945.12 345.29,945.93"/>
    </edge>
    <edge id=":5966007722_4" function="internal">
        <lane id=":5966007722_4_0" index="0" allow="pedestrian delivery bicycle" speed="5.08" length="4.94" shape="346.76,941.81 345.68,942.51 345.07,943.43 344.95,944.57 345.29,945.93"/>
    </edge>
    <edge id=":5966007722_5" function="internal">
        <lane id=":5966007722_5_0" index="0" allow="pedestrian delivery bicycle" speed="5.56" length="9.20" shape="346.76,941.81 338.29,945.40"/>
    </edge>
    <edge id=":5966007722_6" function="internal">
        <lane id=":5966007722_6_0" index="0" allow="pedestrian delivery bicycle" speed="5.56" length="10.03" shape="346.76,941.81 344.18,942.52 341.98,942.17 340.18,940.77 338.77,938.30"/>
    </edge>
    <edge id=":5966007722_7" function="internal">
        <lane id=":5966007722_7_0" index="0" allow="pedestrian delivery bicycle" speed="3.65" length="4.67" shape="346.76,941.81 345.33,941.57 344.64,941.00 344.68,940.11 345.45,938.89"/>
    </edge>
    <edge id=":5966007722_8" function="internal">
        <lane id=":5966007722_8_0" index="0" allow="pedestrian delivery bicycle" speed="4.87" length="4.73" shape="341.73,937.09 342.41,938.30 343.26,939.00 344.27,939.20 345.45,938.89"/>
    </edge>
    <edge id=":5966007722_9" function="internal">
        <lane id=":5966007722_9_0" index="0" allow="pedestrian delivery bicycle" speed="5.56" length="9.53" shape="341.73,937.09 345.29,945.93"/>
    </edge>
    <edge id=":5966007722_10" function="internal">
        <lane id=":5966007722_10_0" index="0" allow="pedestrian delivery bicycle" speed="5.56" length="10.26" shape="341.73,937.09 342.42,939.84 342.08,942.15 340.70,944.00 338.29,945.40"/>
    </edge>
    <edge id=":5966007722_11" function="internal">
        <lane id=":5966007722_11_0" index="0" allow="pedestrian delivery bicycle" speed="3.65" length="4.67" shape="341.73,937.09 341.44,938.51 340.85,939.18 339.96,939.11 338.77,938.30"/>
    </edge>
    <edge id=":5966007722_12" function="internal">