<edges>
    <edge id="edge0" from="0" to="1" numLanes="3" speed="27.78" />
</edges>
